18
Bag taken from Dahlke and Truhlar, JPCA 2008 E=-458.040789670
O -1.021998 1.608318 -0.456678
O -0.094094 -1.928019 0.493961
O 1.621813 1.696837 -0.207570
O 2.340853 -0.867718 0.060479
O -1.335648 0.181853 1.956564
O -1.331460 -0.850965 -1.805075
H 1.486938 -1.336848 0.231505
H 1.950152 0.765154 -0.162978
H -0.034787 1.695742 -0.376042
H -0.530521 -1.352198 1.145180
H -0.582961 -1.741144 -0.326943
H -1.328990 0.062498 -1.465517
H -1.401914 0.792714 1.201738
H -1.326789 2.461744 -0.778163
H -2.217520 -0.997128 -2.146353
H -2.199557 0.194882 2.376682
H 1.966189 2.111332 0.588698
H 2.784035 -1.379201 -0.621253
