18
Book-1 (aka Book) from Dahlke and Truhlar, JPCA 2008 E=-458.042170846
O 0.117613 1.552002 0.864931
H 0.963251 1.520430 0.354199
H 0.279396 2.151449 1.599045
O -0.026563 -1.369287 0.919209
H -0.047968 -0.420972 1.118927
H -0.875920 -1.529241 0.463859
O -2.331117 1.360418 -0.433665
H -1.466018 1.543880 -0.018808
H -2.343909 1.884708 -1.238766
O -2.472465 -1.406461 -0.434029
H -2.546787 -0.433786 -0.500267
H -3.280214 -1.690609 0.002142
O 2.419101 1.204125 -0.466685
H 2.492309 0.220567 -0.499730
H 2.557399 1.499342 -1.370620
O 2.286417 -1.480732 -0.445130
H 1.425830 -1.570951 0.031306
H 2.898736 -2.055343 0.021662
