18
Cyclic-Boat-1 (aka Boat), Dahlke and Truhlar JPCA 2008 E=-458.039087597
O -1.726744 -1.949373 -0.286967
O -2.590266 0.622599 -0.361636
O -0.794610 2.415041 0.610617
O 2.590163 -0.622736 -0.361901
O 0.794557 -2.414847 0.610989
O 1.726922 1.949301 -0.286706
H -1.948340 1.276484 -0.005295
H 0.134410 2.266967 0.327985
H 2.049592 1.021469 -0.329144
H -0.134451 -2.266742 0.328301
H -2.049611 -1.021593 -0.329106
H 0.754378 -2.535812 1.562971
H -0.754427 2.536367 1.562552
H 2.876251 -0.991167 -1.201866
H -2.876587 0.990982 -1.201544
H 1.948264 -1.276555 -0.005381
H 2.495054 2.475673 -0.052229
H -2.494719 -2.475947 -0.052417
